@<TRIPOS>MOLECULE
-388.171242 xinge    runpoint 1  runisomer  10
 22 23 0 0 0
SMALL
GASTEIGER

@<TRIPOS>ATOM
      1 C          -0.0001    1.9488   -0.8013 c3      1  UNL1       -0.0311
      2 H           0.9861    2.0175   -1.2706 hc      1  UNL1        0.0310
      3 H          -0.6064    2.7806   -1.1997 hc      1  UNL1        0.0310
      4 C          -1.5083    0.3879    0.1144 c3      1  UNL1       -0.0130
      5 H          -2.3403   -0.3004    0.1936 hc      1  UNL1        0.0352
      6 C          -0.7421    0.6389   -1.0529 c3      1  UNL1       -0.0271
      7 H          -1.1492    0.4328   -2.0410 hc      1  UNL1        0.0312
      8 C          -0.9933    1.1861    1.1734 c2      1  UNL1       -0.0840
      9 H          -1.3022    1.1053    2.2112 hc      1  UNL1        0.0572
     10 C           0.0001    2.0032    0.7030 c2      1  UNL1       -0.0874
     11 H           0.5790    2.7100    1.2869 hc      1  UNL1        0.0569
     12 C           1.5083   -0.3879    0.1144 c3      1  UNL1       -0.0130
     13 C           0.7421   -0.6389   -1.0529 c3      1  UNL1       -0.0271
     14 C          -0.0001   -2.0032    0.7030 c2      1  UNL1       -0.0874
     15 H           2.3403    0.3004    0.1936 hc      1  UNL1        0.0352
     16 H           1.1492   -0.4328   -2.0410 hc      1  UNL1        0.0312
     17 H          -0.5790   -2.7100    1.2869 hc      1  UNL1        0.0569
     18 C           0.9933   -1.1861    1.1734 c2      1  UNL1       -0.0840
     19 H           1.3022   -1.1053    2.2112 hc      1  UNL1        0.0572
     20 C           0.0001   -1.9488   -0.8013 c3      1  UNL1       -0.0311
     21 H          -0.9861   -2.0175   -1.2706 hc      1  UNL1        0.0310
     22 H           0.6064   -2.7806   -1.1997 hc      1  UNL1        0.0310
@<TRIPOS>BOND
     1     7     6    1
     2    16    13    1
     3     2     1    1
     4    21    20    1
     5     3     1    1
     6    22    20    1
     7     6    13    1
     8     6     1    1
     9     6     4    1
    10    13    20    1
    11    13    12    1
    12     1    10    1
    13    20    14    1
    14     4     5    1
    15     4     8    1
    16    12    15    1
    17    12    18    1
    18    10     8    2
    19    10    11    1
    20    14    18    2
    21    14    17    1
    22     8     9    1
    23    18    19    1
